<!-- <edges>
    <edge id="edge1" from="1" to="2" numLanes="5" speed="80.0"/>
</edges> -->




<edges>
    <edge id="E2TL" from="RJ" to="TL" numLanes="2" speed="13.89"/>
    <edge id="N2TL" from="TJ" to="TL" numLanes="2" speed="13.89"/>
    <edge id="S2TL" from="DJ" to="TL" numLanes="2" speed="13.89"/>
    <edge id="W2TL" from="LJ" to="TL" numLanes="2" speed="13.89"/>
    <edge id="TL2E" from="TL" to="RJ" numLanes="2" speed="13.89"/>
    <edge id="TL2N" from="TL" to="TJ" numLanes="2" speed="13.89"/>
    <edge id="TL2S" from="TL" to="DJ" numLanes="2" speed="13.89"/>
    <edge id="TL2W" from="TL" to="LJ" numLanes="2" speed="13.89"/>
</edges>