<routes>
    <vType id="car" guiShape="passenger" color="1,0,0" accel="5.0" decel="3.0" sigma="1" length="5.0" maxSpeed="80"/>
    <vType id="motorbike" guiShape="motorcycle" color="0,0,1" accel="3.0" decel="2.0" sigma="1" length="2.0" maxSpeed="50"/>
    <vType id="bicycle" guiShape="bicycle" color="0,1,0" accel="1.5" decel="1.0" maxSpeed="25" length="1.5"/>
    <vType id="bus" guiShape="bus" color="1,1,0" accel="3.5" decel="2.5" sigma="1" length="12.0" maxSpeed="60"/>
    <route id="route0" edges="edge1"/>
</routes>