<routes>
    <vType id="car" guiShape="passenger" color="1,0,0" accel="5.0" decel="3.0" sigma="1" length="5.0" maxSpeed="80"/>
    <vType id="motorbike" guiShape="motorcycle" color="0,0,1" accel="3.0" decel="2.0" sigma="1" length="2.0" maxSpeed="50"/>

    <route id="route0" edges="edge1"/>
</routes>