<routes>
    <vType id="car" guiShape="passenger" color="1,0,0" accel="5.0" decel="3.0" sigma="1" length="5.0" maxSpeed="80"/>
    <vType id="motorcycle" guiShape="motorcycle" color="0,0,1" accel="3.0" decel="2.0" sigma="1" length="2.0" maxSpeed="50"/>
    <vType id="bicycle" guiShape="bicycle" color="0,1,0" accel="1.5" decel="1.0" maxSpeed="25" length="1.5"/>
    <vType id="bus" guiShape="bus" color="1,1,0" accel="3.5" decel="2.5" sigma="1" length="12.0" maxSpeed="100"/>
    <vType id="truck" guiShape="truck" color="1,1,1" accel="3.0" decel="2.5" sigma="1" length="10.0" maxSpeed="100"/>

    <!-- Routes -->
    <route id="W_E" edges="W2TL TL2E"/>
    <route id="W_S" edges="W2TL TL2S"/>
    <route id="N_W" edges="N2TL TL2W"/>
    <route id="N_S" edges="N2TL TL2S"/>
    <route id="E_W" edges="E2TL TL2W"/>
    <route id="E_N" edges="E2TL TL2N"/>
    <route id="S_N" edges="S2TL TL2N"/>
    <route id="S_E" edges="S2TL TL2E"/>
</routes>